Info: SIMULATION PARAMETERS:
Info: TIMESTEP               2
Info: NUMBER OF STEPS        0
Info: STEPS PER CYCLE        20
Info: PERIODIC CELL BASIS 1  79.8666 0 0
Info: PERIODIC CELL BASIS 2  0 76.0176 0
Info: PERIODIC CELL BASIS 3  0 0 100.074
Info: PERIODIC CELL CENTER   -19.5918 -9.75912 22.2998
Info: WRAPPING ALL CLUSTERS AROUND PERIODIC BOUNDARIES ON OUTPUT.
Info: FIRST LDB TIMESTEP     100
Info: LAST LDB TIMESTEP     -1
Info: HOM BACKGROUND SCALING 1
Info: PME BACKGROUND SCALING 1
Info: MIN ATOMS PER PATCH    40
Info: VELOCITY FILE          out/10-min-wat/00001.restart.vel
Info: CENTER OF MASS MOVING INITIALLY? NO
Info: DIELECTRIC             1
Info: EXCLUDE                SCALED ONE-FOUR
Info: 1-4 ELECTROSTATICS SCALED BY 1
Info: MODIFIED 1-4 VDW PARAMETERS WILL BE USED
Info: DCD FILENAME           out/11-run-wat/00001.dcd
Info: DCD FREQUENCY          2500
Info: DCD FIRST STEP         2500
Info: DCD FILE WILL CONTAIN UNIT CELL DATA
Info: XST FILENAME           out/11-run-wat/00001.xst
Info: XST FREQUENCY          2500
Info: NO VELOCITY DCD OUTPUT
Info: NO FORCE DCD OUTPUT
Info: OUTPUT FILENAME        out/11-run-wat/00001
Info: BINARY OUTPUT FILES WILL BE USED
Info: RESTART FILENAME       out/11-run-wat/00001.restart
Info: RESTART FREQUENCY      50002
Info: BINARY RESTART FILES WILL BE USED
Info: SWITCHING ACTIVE
Info: SWITCHING ON           10
Info: SWITCHING OFF          12
Info: PAIRLIST DISTANCE      14
Info: PAIRLIST SHRINK RATE   0.01
Info: PAIRLIST GROW RATE     0.01
Info: PAIRLIST TRIGGER       0.3
Info: PAIRLISTS PER CYCLE    2
Info: PAIRLISTS ENABLED
Info: MARGIN                 0.495
Info: HYDROGEN GROUP CUTOFF  2.5
Info: PATCH DIMENSION        16.995
Info: ENERGY OUTPUT STEPS    2500
Info: CROSSTERM ENERGY INCLUDED IN DIHEDRAL
Info: TIMING OUTPUT STEPS    25000
Info: LANGEVIN DYNAMICS ACTIVE
Info: LANGEVIN TEMPERATURE   300
Info: LANGEVIN USING BBK INTEGRATOR
Info: LANGEVIN DAMPING COEFFICIENT IS 1 INVERSE PS
Info: LANGEVIN DYNAMICS NOT APPLIED TO HYDROGENS
Info: LANGEVIN PISTON PRESSURE CONTROL ACTIVE
Info:        TARGET PRESSURE IS 1.01325 BAR
Info:     OSCILLATION PERIOD IS 200 FS
Info:             DECAY TIME IS 100 FS
Info:     PISTON TEMPERATURE IS 300 K
Info:       PRESSURE CONTROL IS GROUP-BASED
Info:    INITIAL STRAIN RATE IS -5.06207e-006 -5.06207e-006 -5.06207e-006
Info:       CELL FLUCTUATION IS ISOTROPIC
Info: PARTICLE MESH EWALD (PME) ACTIVE
Info: PME TOLERANCE               1e-006
Info: PME EWALD COEFFICIENT       0.257952
Info: PME INTERPOLATION ORDER     4
Info: PME GRID DIMENSIONS         80 80 108
Info: PME MAXIMUM GRID SPACING    1
Info: FULL ELECTROSTATIC EVALUATION FREQUENCY      2
Info: USING VERLET I (r-RESPA) MTS SCHEME.
Info: C2 SPLITTING OF LONG RANGE ELECTROSTATICS
Info: PLACING ATOMS IN PATCHES BY HYDROGEN GROUPS
Info: RIGID BONDS TO HYDROGEN : ALL
Info:         ERROR TOLERANCE : 1e-005
Info:          MAX ITERATIONS : 100
Info: RIGID WATER USING SETTLE ALGORITHM
Info: RANDOM NUMBER SEED     1437084372
Info: USE HYDROGEN BONDS?    NO
Info: COORDINATE PDB         struct/water.pdb
Info: STRUCTURE FILE         struct/water.psf
Info: PARAMETER file: CHARMM format!
Info: PARAMETERS             FF/par_all22_prot.prm
Info: PARAMETERS             FF/par_all36_lipid.prm
Info: PARAMETERS             FF/par_all27_water.prm
Info: USING ARITHMETIC MEAN TO COMBINE L-J SIGMA PARAMETERS
Info: BINARY COORDINATES     out/10-min-wat/00001.restart.coor
Info: SUMMARY OF PARAMETERS:
Info: 175 BONDS
Info: 455 ANGLES
Info: 621 DIHEDRAL
Info: 38 IMPROPER
Info: 6 CROSSTERM
Info: 89 VDW
Info: 4 VDW_PAIRS
Info: 0 NBTHOLE_PAIRS
Info: STRUCTURE SUMMARY:
Info: 61949 ATOMS
Info: 44196 BONDS
Info: 33228 ANGLES
Info: 22537 DIHEDRALS
Info: 1531 IMPROPERS
Info: 532 CROSSTERMS
Info: 0 EXCLUSIONS
Info: 57703 RIGID BONDS
Info: 128144 DEGREES OF FREEDOM
Info: 22069 HYDROGEN GROUPS
Info: 4 ATOMS IN LARGEST HYDROGEN GROUP
Info: 22069 MIGRATION GROUPS
Info: 4 ATOMS IN LARGEST MIGRATION GROUP
Info: TOTAL MASS = 381239 amu
Info: TOTAL CHARGE = -3.99999 e
Info: MASS DENSITY = 1.04197 g/cm^3
Info: ATOM DENSITY = 0.101961 atoms/A^3
Info: ADDED 99696 IMPLICIT EXCLUSIONS
Info: NONBONDED TABLE R-SQUARED SPACING: 0.0625
Info: NONBONDED TABLE SIZE: 769 POINTS
Info: Updated CUDA LJ table with 89 x 89 elements.
Info: Updated CUDA force table with 4096 elements.
Info: REMOVING COM VELOCITY 0.000493491 0.000114122 0.00097395
Info: Found 339 unique exclusion lists needing 1112 bytes
TCL: Running for 500020 steps
ETITLE: TS BOND ANGLE DIHED IMPRP ELECT VDW BOUNDARY MISC KINETIC TOTAL TEMP POTENTIAL TOTAL3 TEMPAVG PRESSURE GPRESSURE VOLUME PRESSAVG GPRESSAVG
ENERGY: 0 1651.1803 4684.1140 2136.8895 284.8402 -212007.4026 15292.9004 0.0000 0.0000 37912.6768 -150044.8014 297.7670 -187957.4782 -149907.2564 297.7670 407.6427 -119.0594 607574.0987 407.6427 -119.0594
ENERGY: 100000 1700.0143 4699.4338 2115.2244 281.7693 -212581.2556 15661.6259 0.0000 0.0000 38164.3533 -149958.8346 299.7437 -188123.1879 -149816.5210 298.8757 399.7700 -129.3380 606913.3436 -0.1041 -0.1360
ENERGY: 200000 1673.9960 4715.0837 2128.8344 300.5411 -212739.8092 15623.6714 0.0000 0.0000 38337.5492 -149960.1335 301.1040 -188297.6827 -149818.7865 298.8792 671.8579 142.8084 604348.2667 -0.1856 -0.2284
ENERGY: 300000 1706.4778 4702.5154 2087.0094 269.6372 -212500.5688 15376.2010 0.0000 0.0000 38391.6748 -149967.0531 301.5291 -188358.7279 -149827.6312 299.3155 317.6944 -210.3777 604791.4723 -1.3839 -1.3918
ENERGY: 400000 1746.8730 4745.2398 2134.8449 303.6887 -212756.7951 15469.0224 0.0000 0.0000 38058.2123 -150298.9140 298.9100 -188357.1264 -150161.3563 298.6033 398.8734 -130.4375 603338.7061 -1.1117 -1.1116
ENERGY: 500000 1647.4029 4663.5220 2123.9729 313.7214 -212798.8858 15835.2214 0.0000 0.0000 38121.7955 -150093.2496 299.4094 -188215.0451 -149963.3955 299.5027 667.4380 136.5621 603673.0820 4.5582 4.5180
