Info: SIMULATION PARAMETERS:
Info: TIMESTEP               2
Info: NUMBER OF STEPS        0
Info: STEPS PER CYCLE        20
Info: PERIODIC CELL BASIS 1  79.724 0 0
Info: PERIODIC CELL BASIS 2  0 75.8819 0
Info: PERIODIC CELL BASIS 3  0 0 99.8952
Info: PERIODIC CELL CENTER   -19.5918 -9.75912 22.2998
Info: WRAPPING ALL CLUSTERS AROUND PERIODIC BOUNDARIES ON OUTPUT.
Info: FIRST LDB TIMESTEP     100
Info: LAST LDB TIMESTEP     -1
Info: HOM BACKGROUND SCALING 1
Info: PME BACKGROUND SCALING 1
Info: MIN ATOMS PER PATCH    40
Info: VELOCITY FILE          out/11-run-wat/00001.restart.vel
Info: CENTER OF MASS MOVING INITIALLY? NO
Info: DIELECTRIC             1
Info: EXCLUDE                SCALED ONE-FOUR
Info: 1-4 ELECTROSTATICS SCALED BY 1
Info: MODIFIED 1-4 VDW PARAMETERS WILL BE USED
Info: DCD FILENAME           out/11-run-wat/00002.dcd
Info: DCD FREQUENCY          2500
Info: DCD FIRST STEP         2500
Info: DCD FILE WILL CONTAIN UNIT CELL DATA
Info: XST FILENAME           out/11-run-wat/00002.xst
Info: XST FREQUENCY          2500
Info: NO VELOCITY DCD OUTPUT
Info: NO FORCE DCD OUTPUT
Info: OUTPUT FILENAME        out/11-run-wat/00002
Info: BINARY OUTPUT FILES WILL BE USED
Info: RESTART FILENAME       out/11-run-wat/00002.restart
Info: RESTART FREQUENCY      50002
Info: BINARY RESTART FILES WILL BE USED
Info: SWITCHING ACTIVE
Info: SWITCHING ON           10
Info: SWITCHING OFF          12
Info: PAIRLIST DISTANCE      14
Info: PAIRLIST SHRINK RATE   0.01
Info: PAIRLIST GROW RATE     0.01
Info: PAIRLIST TRIGGER       0.3
Info: PAIRLISTS PER CYCLE    2
Info: PAIRLISTS ENABLED
Info: MARGIN                 0.495
Info: HYDROGEN GROUP CUTOFF  2.5
Info: PATCH DIMENSION        16.995
Info: ENERGY OUTPUT STEPS    2500
Info: CROSSTERM ENERGY INCLUDED IN DIHEDRAL
Info: TIMING OUTPUT STEPS    25000
Info: LANGEVIN DYNAMICS ACTIVE
Info: LANGEVIN TEMPERATURE   300
Info: LANGEVIN USING BBK INTEGRATOR
Info: LANGEVIN DAMPING COEFFICIENT IS 1 INVERSE PS
Info: LANGEVIN DYNAMICS NOT APPLIED TO HYDROGENS
Info: LANGEVIN PISTON PRESSURE CONTROL ACTIVE
Info:        TARGET PRESSURE IS 1.01325 BAR
Info:     OSCILLATION PERIOD IS 200 FS
Info:             DECAY TIME IS 100 FS
Info:     PISTON TEMPERATURE IS 300 K
Info:       PRESSURE CONTROL IS GROUP-BASED
Info:    INITIAL STRAIN RATE IS -2.60186e-005 -2.60186e-005 -2.60186e-005
Info:       CELL FLUCTUATION IS ISOTROPIC
Info: PARTICLE MESH EWALD (PME) ACTIVE
Info: PME TOLERANCE               1e-006
Info: PME EWALD COEFFICIENT       0.257952
Info: PME INTERPOLATION ORDER     4
Info: PME GRID DIMENSIONS         80 80 108
Info: PME MAXIMUM GRID SPACING    1
Info: FULL ELECTROSTATIC EVALUATION FREQUENCY      2
Info: USING VERLET I (r-RESPA) MTS SCHEME.
Info: C2 SPLITTING OF LONG RANGE ELECTROSTATICS
Info: PLACING ATOMS IN PATCHES BY HYDROGEN GROUPS
Info: RIGID BONDS TO HYDROGEN : ALL
Info:         ERROR TOLERANCE : 1e-005
Info:          MAX ITERATIONS : 100
Info: RIGID WATER USING SETTLE ALGORITHM
Info: RANDOM NUMBER SEED     1437097628
Info: USE HYDROGEN BONDS?    NO
Info: COORDINATE PDB         struct/water.pdb
Info: STRUCTURE FILE         struct/water.psf
Info: PARAMETER file: CHARMM format!
Info: PARAMETERS             FF/par_all22_prot.prm
Info: PARAMETERS             FF/par_all36_lipid.prm
Info: PARAMETERS             FF/par_all27_water.prm
Info: USING ARITHMETIC MEAN TO COMBINE L-J SIGMA PARAMETERS
Info: BINARY COORDINATES     out/11-run-wat/00001.restart.coor
Info: SUMMARY OF PARAMETERS:
Info: 175 BONDS
Info: 455 ANGLES
Info: 621 DIHEDRAL
Info: 38 IMPROPER
Info: 6 CROSSTERM
Info: 89 VDW
Info: 4 VDW_PAIRS
Info: 0 NBTHOLE_PAIRS
Info: STRUCTURE SUMMARY:
Info: 61949 ATOMS
Info: 44196 BONDS
Info: 33228 ANGLES
Info: 22537 DIHEDRALS
Info: 1531 IMPROPERS
Info: 532 CROSSTERMS
Info: 0 EXCLUSIONS
Info: 57703 RIGID BONDS
Info: 128144 DEGREES OF FREEDOM
Info: 22069 HYDROGEN GROUPS
Info: 4 ATOMS IN LARGEST HYDROGEN GROUP
Info: 22069 MIGRATION GROUPS
Info: 4 ATOMS IN LARGEST MIGRATION GROUP
Info: TOTAL MASS = 381239 amu
Info: TOTAL CHARGE = -3.99999 e
Info: MASS DENSITY = 1.04757 g/cm^3
Info: ATOM DENSITY = 0.102509 atoms/A^3
Info: ADDED 99696 IMPLICIT EXCLUSIONS
Info: NONBONDED TABLE R-SQUARED SPACING: 0.0625
Info: NONBONDED TABLE SIZE: 769 POINTS
Info: Updated CUDA LJ table with 89 x 89 elements.
Info: Updated CUDA force table with 4096 elements.
Info: REMOVING COM VELOCITY 0.0126993 0.0194976 -0.0419425
Info: Found 339 unique exclusion lists needing 1112 bytes
TCL: Running for 500020 steps
ETITLE: TS BOND ANGLE DIHED IMPRP ELECT VDW BOUNDARY MISC KINETIC TOTAL TEMP POTENTIAL TOTAL3 TEMPAVG PRESSURE GPRESSURE VOLUME PRESSAVG GPRESSAVG
ENERGY: 0 1709.7747 4589.9525 2115.9120 296.5914 -212263.8622 15320.1561 0.0000 0.0000 38098.4175 -150133.0579 299.2258 -188231.4755 -149994.4720 299.2258 454.9105 -78.1253 604326.7936 454.9105 -78.1253
ENERGY: 100000 1671.5110 4610.2316 2135.2154 286.7636 -213287.5370 16064.4746 0.0000 0.0000 38318.1644 -150201.1763 300.9517 -188519.3408 -150060.9898 299.2950 776.2935 244.4392 602196.0889 6.0762 6.0503
ENERGY: 200000 1668.8226 4624.7789 2091.5667 268.8517 -212769.3706 15764.2732 0.0000 0.0000 38227.4371 -150123.6405 300.2391 -188351.0776 -149977.1887 299.1934 627.1642 98.4592 604601.7414 0.8328 0.8692
ENERGY: 300000 1600.2391 4687.1590 2087.3651 299.8900 -213246.3501 15982.5660 0.0000 0.0000 38357.8728 -150231.2580 301.2636 -188589.1308 -150092.7195 299.9708 816.1607 286.6310 603444.9111 4.4619 4.4748
ENERGY: 400000 1649.8478 4583.3308 2091.8620 301.9433 -212793.8312 15662.0657 0.0000 0.0000 38228.7465 -150276.0351 300.2494 -188504.7816 -150141.2316 299.1153 453.4568 -75.0158 603733.8673 2.4581 2.4917
ENERGY: 500000 1652.4843 4663.4211 2139.1874 296.9861 -212745.0712 15666.0266 0.0000 0.0000 37968.4890 -150358.4767 298.2053 -188326.9656 -150225.0166 299.1099 514.0031 -13.7362 603639.7116 0.7358 0.6951
